<?xml version="1.0" encoding="UTF-8"?>

<!-- generated on 2022-08-02 13:37:42 by Eclipse SUMO netedit Version 1.13.0
<configuration xmlns:xsi="http://www.w3.org/2001/XMLSchema-instance" xsi:noNamespaceSchemaLocation="http://sumo.dlr.de/xsd/netconvertConfiguration.xsd">

    <input>
        <sumo-net-file value="C:\Users\tetsuya.fukumaru\Sumo\OpenCampas\tomei_2lane.net.xml"/>
    </input>

    <output>
        <output-file value="C:\Users\tetsuya.fukumaru\Sumo\OpenCampas\tomei_2lane.net.xml"/>
        <output.street-names value="true"/>
    </output>

    <processing>
        <geometry.min-radius.fix.railways value="false"/>
        <geometry.max-grade.fix value="false"/>
        <offset.disable-normalization value="true"/>
        <lefthand value="true"/>
    </processing>

    <junctions>
        <no-turnarounds value="true"/>
        <junctions.corner-detail value="5"/>
        <junctions.limit-turn-speed value="5.5"/>
        <rectangular-lane-cut value="false"/>
    </junctions>

    <pedestrian>
        <walkingareas value="false"/>
    </pedestrian>

    <report>
        <aggregate-warnings value="5"/>
    </report>

</configuration>
-->

<net version="1.9" junctionCornerDetail="5" lefthand="true" limitTurnSpeed="5.50" xmlns:xsi="http://www.w3.org/2001/XMLSchema-instance" xsi:noNamespaceSchemaLocation="http://sumo.dlr.de/xsd/net_file.xsd">

    <location netOffset="-352642.71,-3920557.28" convBoundary="0.00,533.39,9545.04,9430.85" origBoundary="139.298109,35.410037,139.515982,35.590057" projParameter="+proj=utm +zone=54 +ellps=WGS84 +datum=WGS84 +units=m +no_defs"/>

    <type id="highway.bridleway" priority="1" numLanes="1" speed="2.78" allow="pedestrian" oneway="1" width="2.00"/>
    <type id="highway.bus_guideway" priority="1" numLanes="1" speed="34.00" allow="bus" oneway="1"/>
    <type id="highway.cycleway" priority="1" numLanes="1" speed="8.33" allow="bicycle" oneway="0" width="1.00"/>
    <type id="highway.footway" priority="1" numLanes="1" speed="2.78" allow="pedestrian" oneway="1" width="2.00"/>
    <type id="highway.ford" priority="1" numLanes="1" speed="2.78" allow="army" oneway="0"/>
    <type id="highway.living_street" priority="2" numLanes="1" speed="2.78" disallow="tram rail_urban rail rail_electric rail_fast ship" oneway="0"/>
    <type id="highway.motorway" priority="14" numLanes="2" speed="34.00" allow="private emergency authority army vip passenger hov taxi bus coach delivery truck trailer motorcycle evehicle custom1 custom2" oneway="1"/>
    <type id="highway.motorway_link" priority="9" numLanes="1" speed="22.22" allow="private emergency authority army vip passenger hov taxi bus coach delivery truck trailer motorcycle evehicle custom1 custom2" oneway="1"/>
    <type id="highway.path" priority="1" numLanes="1" speed="2.78" allow="pedestrian bicycle" oneway="0" width="2.00"/>
    <type id="highway.pedestrian" priority="1" numLanes="1" speed="2.78" allow="pedestrian" oneway="1" width="2.00"/>
    <type id="highway.primary" priority="12" numLanes="2" speed="34.00" disallow="tram rail_urban rail rail_electric rail_fast ship" oneway="0"/>
    <type id="highway.primary_link" priority="7" numLanes="1" speed="22.22" disallow="tram rail_urban rail rail_electric rail_fast ship" oneway="0"/>
    <type id="highway.raceway" priority="15" numLanes="2" speed="83.33" allow="vip" oneway="0"/>
    <type id="highway.residential" priority="3" numLanes="1" speed="13.89" disallow="tram rail_urban rail rail_electric rail_fast ship" oneway="0"/>
    <type id="highway.secondary" priority="11" numLanes="1" speed="34.00" disallow="tram rail_urban rail rail_electric rail_fast ship" oneway="0"/>
    <type id="highway.secondary_link" priority="6" numLanes="1" speed="22.22" disallow="tram rail_urban rail rail_electric rail_fast ship" oneway="0"/>
    <type id="highway.service" priority="1" numLanes="1" speed="5.56" allow="pedestrian delivery bicycle" oneway="0"/>
    <type id="highway.stairs" priority="1" numLanes="1" speed="1.39" allow="pedestrian" oneway="1" width="2.00"/>
    <type id="highway.step" priority="1" numLanes="1" speed="1.39" allow="pedestrian" oneway="1" width="2.00"/>
    <type id="highway.steps" priority="1" numLanes="1" speed="1.39" allow="pedestrian" oneway="1" width="2.00"/>
    <type id="highway.tertiary" priority="10" numLanes="1" speed="22.22" disallow="tram rail_urban rail rail_electric rail_fast ship" oneway="0"/>
    <type id="highway.tertiary_link" priority="5" numLanes="1" speed="22.22" disallow="tram rail_urban rail rail_electric rail_fast ship" oneway="0"/>
    <type id="highway.track" priority="1" numLanes="1" speed="5.56" allow="pedestrian motorcycle moped bicycle" oneway="0"/>
    <type id="highway.trunk" priority="13" numLanes="2" speed="34.00" disallow="pedestrian bicycle tram rail_urban rail rail_electric rail_fast ship" oneway="0"/>
    <type id="highway.trunk_link" priority="8" numLanes="1" speed="22.22" disallow="pedestrian bicycle tram rail_urban rail rail_electric rail_fast ship" oneway="0"/>
    <type id="highway.unclassified" priority="4" numLanes="1" speed="13.89" disallow="tram rail_urban rail rail_electric rail_fast ship" oneway="0"/>
    <type id="highway.unsurfaced" priority="1" numLanes="1" speed="8.33" disallow="tram rail_urban rail rail_electric rail_fast ship" oneway="0"/>
    <type id="railway.highspeed" priority="21" numLanes="1" speed="69.44" allow="rail_fast" oneway="1"/>
    <type id="railway.light_rail" priority="19" numLanes="1" speed="34.00" allow="rail_urban" oneway="1"/>
    <type id="railway.preserved" priority="16" numLanes="1" speed="34.00" allow="rail" oneway="1"/>
    <type id="railway.rail" priority="20" numLanes="1" speed="44.44" allow="rail" oneway="1"/>
    <type id="railway.subway" priority="18" numLanes="1" speed="34.00" allow="rail_urban" oneway="1"/>
    <type id="railway.tram" priority="17" numLanes="1" speed="13.89" allow="tram" oneway="1"/>

    <edge id=":1050260103-AddedOffRampNode_0" function="internal">
        <lane id=":1050260103-AddedOffRampNode_0_0" index="0" allow="private emergency authority army vip passenger hov taxi bus coach delivery truck trailer motorcycle evehicle custom1 custom2" speed="34.00" length="8.20" shape="4166.81,3503.75 4165.20,3501.82 4164.68,3500.01 4164.16,3498.19 4162.54,3496.26"/>
        <lane id=":1050260103-AddedOffRampNode_0_1" index="1" allow="private emergency authority army vip passenger hov taxi bus coach delivery truck trailer motorcycle evehicle custom1 custom2" speed="34.00" length="8.20" shape="4166.81,3503.75 4160.55,3498.77"/>
        <lane id=":1050260103-AddedOffRampNode_0_2" index="2" allow="private emergency authority army vip passenger hov taxi bus coach delivery truck trailer motorcycle evehicle custom1 custom2" speed="34.00" length="8.20" shape="4164.82,3506.25 4158.56,3501.27"/>
        <lane id=":1050260103-AddedOffRampNode_0_3" index="3" allow="private emergency authority army vip passenger hov taxi bus coach delivery truck trailer motorcycle evehicle custom1 custom2" speed="34.00" length="8.20" shape="4162.82,3508.75 4156.56,3503.78"/>
    </edge>
    <edge id=":219729784#2-AddedOffRampNode_0" function="internal">
        <lane id=":219729784#2-AddedOffRampNode_0_0" index="0" allow="private emergency authority army vip passenger hov taxi bus coach delivery truck trailer motorcycle evehicle custom1 custom2" speed="34.00" length="8.20" shape="679.45,615.17 677.17,614.12 675.92,612.69 674.68,611.27 672.40,610.22"/>
        <lane id=":219729784#2-AddedOffRampNode_0_1" index="1" allow="private emergency authority army vip passenger hov taxi bus coach delivery truck trailer motorcycle evehicle custom1 custom2" speed="34.00" length="8.20" shape="679.45,615.17 671.66,613.33"/>
        <lane id=":219729784#2-AddedOffRampNode_0_2" index="2" allow="private emergency authority army vip passenger hov taxi bus coach delivery truck trailer motorcycle evehicle custom1 custom2" speed="34.00" length="8.20" shape="678.71,618.28 670.93,616.45"/>
        <lane id=":219729784#2-AddedOffRampNode_0_3" index="3" allow="private emergency authority army vip passenger hov taxi bus coach delivery truck trailer motorcycle evehicle custom1 custom2" speed="34.00" length="8.20" shape="677.98,621.40 670.19,619.56"/>
    </edge>
    <edge id=":219729784#2-AddedOnRampNode_0" function="internal">
        <lane id=":219729784#2-AddedOnRampNode_0_0" index="0" allow="private emergency authority army vip passenger hov taxi bus coach delivery truck trailer motorcycle evehicle custom1 custom2" speed="34.00" length="8.00" shape="1811.79,1184.19 1805.63,1179.08"/>
        <lane id=":219729784#2-AddedOnRampNode_0_1" index="1" allow="private emergency authority army vip passenger hov taxi bus coach delivery truck trailer motorcycle evehicle custom1 custom2" speed="34.00" length="8.00" shape="1809.74,1186.66 1803.59,1181.54"/>
        <lane id=":219729784#2-AddedOnRampNode_0_2" index="2" allow="private emergency authority army vip passenger hov taxi bus coach delivery truck trailer motorcycle evehicle custom1 custom2" speed="34.00" length="8.00" shape="1807.70,1189.12 1801.54,1184.00"/>
    </edge>
    <edge id=":243828539_0" function="internal">
        <lane id=":243828539_0_0" index="0" allow="private emergency authority army vip passenger hov taxi bus coach delivery truck trailer motorcycle evehicle custom1 custom2" speed="27.11" length="12.83" shape="1776.84,1185.27 1778.88,1188.31 1778.96,1191.55 1778.95,1194.56 1780.71,1196.88"/>
    </edge>
    <edge id=":243828539_1" function="internal">
        <lane id=":243828539_1_0" index="0" allow="private emergency authority army vip passenger hov taxi bus coach delivery truck trailer motorcycle evehicle custom1 custom2" speed="34.00" length="8.85" shape="1776.84,1185.27 1784.04,1190.82"/>
        <lane id=":243828539_1_1" index="1" allow="private emergency authority army vip passenger hov taxi bus coach delivery truck trailer motorcycle evehicle custom1 custom2" speed="34.00" length="8.85" shape="1778.78,1182.73 1785.61,1187.96"/>
    </edge>
    <edge id=":243828544_0" function="internal">
        <lane id=":243828544_0_0" index="0" allow="private emergency authority army vip passenger hov taxi bus coach delivery truck trailer motorcycle evehicle custom1 custom2" speed="34.00" length="8.12" shape="2362.90,1859.45 2367.12,1866.42"/>
        <lane id=":243828544_0_1" index="1" allow="private emergency authority army vip passenger hov taxi bus coach delivery truck trailer motorcycle evehicle custom1 custom2" speed="34.00" length="8.12" shape="2365.63,1857.79 2369.83,1864.72"/>
    </edge>
    <edge id=":243828544_2" function="internal">
        <lane id=":243828544_2_0" index="0" allow="private emergency authority army vip passenger hov taxi bus coach delivery truck trailer motorcycle evehicle custom1 custom2" speed="21.55" length="8.82" shape="2360.41,1860.97 2362.00,1862.91 2363.67,1863.75 2365.39,1864.56 2367.12,1866.42"/>
    </edge>
    <edge id=":243828552_0" function="internal">
        <lane id=":243828552_0_0" index="0" allow="private emergency authority army vip passenger hov taxi bus coach delivery truck trailer motorcycle evehicle custom1 custom2" speed="27.11" length="9.21" shape="3500.81,3092.35 3502.57,3094.23 3503.06,3096.19 3503.55,3098.16 3505.29,3100.07"/>
    </edge>
    <edge id=":243828552_1" function="internal">
        <lane id=":243828552_1_0" index="0" allow="private emergency authority army vip passenger hov taxi bus coach delivery truck trailer motorcycle evehicle custom1 custom2" speed="34.00" length="8.02" shape="3500.81,3092.35 3507.54,3096.66"/>
        <lane id=":243828552_1_1" index="1" allow="private emergency authority army vip passenger hov taxi bus coach delivery truck trailer motorcycle evehicle custom1 custom2" speed="34.00" length="8.02" shape="3502.53,3089.66 3509.30,3093.99"/>
    </edge>
    <edge id=":243828554_0" function="internal">
        <lane id=":243828554_0_0" index="0" allow="private emergency authority army vip passenger hov taxi bus coach delivery truck trailer motorcycle evehicle custom1 custom2" speed="34.00" length="8.56" shape="4069.39,3457.40 4076.49,3462.03"/>
        <lane id=":243828554_0_1" index="1" allow="private emergency authority army vip passenger hov taxi bus coach delivery truck trailer motorcycle evehicle custom1 custom2" speed="34.00" length="8.56" shape="4071.24,3454.79 4078.48,3459.53"/>
    </edge>
    <edge id=":243828554_2" function="internal">
        <lane id=":243828554_2_0" index="0" allow="private emergency authority army vip passenger hov taxi bus coach delivery truck trailer motorcycle evehicle custom1 custom2" speed="27.11" length="11.34" shape="4065.81,3462.48 4068.55,3463.25 4071.05,3462.17 4073.61,3461.13 4076.49,3462.03"/>
    </edge>
    <edge id=":243828584_0" function="internal">
        <lane id=":243828584_0_0" index="0" allow="private emergency authority army vip passenger hov taxi bus coach delivery truck trailer motorcycle evehicle custom1 custom2" speed="34.00" length="0.28" shape="6662.92,6286.35 6663.08,6286.53"/>
        <lane id=":243828584_0_1" index="1" allow="private emergency authority army vip passenger hov taxi bus coach delivery truck trailer motorcycle evehicle custom1 custom2" speed="34.00" length="0.28" shape="6665.34,6284.25 6665.54,6284.48"/>
    </edge>
    <edge id=":243828585_0" function="internal">
        <lane id=":243828585_0_0" index="0" allow="private emergency authority army vip passenger hov taxi bus coach delivery truck trailer motorcycle evehicle custom1 custom2" speed="34.00" length="0.27" shape="6842.64,6502.78 6842.87,6503.04"/>
        <lane id=":243828585_0_1" index="1" allow="private emergency authority army vip passenger hov taxi bus coach delivery truck trailer motorcycle evehicle custom1 custom2" speed="34.00" length="0.27" shape="6845.10,6500.73 6845.23,6500.88"/>
    </edge>
    <edge id=":243828588_0" function="internal">
        <lane id=":243828588_0_0" index="0" allow="private emergency authority army vip passenger hov taxi bus coach delivery truck trailer motorcycle evehicle custom1 custom2" speed="34.00" length="0.26" shape="7225.85,6866.52 7226.09,6866.71"/>
        <lane id=":243828588_0_1" index="1" allow="private emergency authority army vip passenger hov taxi bus coach delivery truck trailer motorcycle evehicle custom1 custom2" speed="34.00" length="0.26" shape="7227.89,6864.05 7228.06,6864.19"/>
    </edge>
    <edge id=":243828608_0" function="internal">
        <lane id=":243828608_0_0" index="0" allow="private emergency authority army vip passenger hov taxi bus coach delivery truck trailer motorcycle evehicle custom1 custom2" speed="27.11" length="11.65" shape="9475.34,9373.69 9476.67,9376.66 9476.20,9379.48 9475.75,9382.13 9477.10,9384.63"/>
    </edge>
    <edge id=":243828608_1" function="internal">
        <lane id=":243828608_1_0" index="0" allow="private emergency authority army vip passenger hov taxi bus coach delivery truck trailer motorcycle evehicle custom1 custom2" speed="34.00" length="8.30" shape="9475.34,9373.69 9480.94,9380.07"/>
        <lane id=":243828608_1_1" index="1" allow="private emergency authority army vip passenger hov taxi bus coach delivery truck trailer motorcycle evehicle custom1 custom2" speed="34.00" length="8.30" shape="9477.68,9371.52 9483.02,9377.61"/>
    </edge>
    <edge id=":257058376_0" function="internal">
        <lane id=":257058376_0_0" index="0" allow="private emergency authority army vip passenger hov taxi bus coach delivery truck trailer motorcycle evehicle custom1 custom2" speed="34.00" length="8.18" shape="6865.94,6488.61 6864.54,6486.71 6863.90,6485.17 6863.28,6483.63 6861.93,6481.68"/>
        <lane id=":257058376_0_1" index="1" allow="private emergency authority army vip passenger hov taxi bus coach delivery truck trailer motorcycle evehicle custom1 custom2" speed="34.00" length="8.18" shape="6863.57,6490.77 6862.16,6488.84 6861.51,6487.30 6860.87,6485.74 6859.51,6483.77"/>
        <lane id=":257058376_0_2" index="2" allow="private emergency authority army vip passenger hov taxi bus coach delivery truck trailer motorcycle evehicle custom1 custom2" speed="34.00" length="8.18" shape="6861.21,6492.93 6859.78,6490.98 6859.11,6489.42 6858.47,6487.85 6857.08,6485.86"/>
        <lane id=":257058376_0_3" index="3" allow="private emergency authority army vip passenger hov taxi bus coach delivery truck trailer motorcycle evehicle custom1 custom2" speed="34.00" length="8.18" shape="6861.21,6492.93 6859.39,6491.30 6857.90,6490.47 6856.42,6489.61 6854.66,6487.95"/>
    </edge>
    <edge id=":257058382_0" function="internal">
        <lane id=":257058382_0_0" index="0" allow="private emergency authority army vip passenger hov taxi bus coach delivery truck trailer motorcycle evehicle custom1 custom2" speed="34.00" length="8.06" shape="5499.61,5235.34 5498.08,5233.62 5497.34,5232.18 5496.63,5230.71 5495.20,5228.89"/>
        <lane id=":257058382_0_1" index="1" allow="private emergency authority army vip passenger hov taxi bus coach delivery truck trailer motorcycle evehicle custom1 custom2" speed="34.00" length="8.06" shape="5497.47,5237.72 5495.90,5235.96 5495.12,5234.49 5494.39,5232.99 5492.91,5231.13"/>
        <lane id=":257058382_0_2" index="2" allow="private emergency authority army vip passenger hov taxi bus coach delivery truck trailer motorcycle evehicle custom1 custom2" speed="34.00" length="8.06" shape="5495.33,5240.10 5493.71,5238.30 5492.91,5236.81 5492.14,5235.27 5490.62,5233.37"/>
    </edge>
    <edge id=":257058400_0" function="internal">
        <lane id=":257058400_0_0" index="0" allow="private emergency authority army vip passenger hov taxi bus coach delivery truck trailer motorcycle evehicle custom1 custom2" speed="27.11" length="3.16" shape="2390.05,1853.07 2388.37,1850.40"/>
    </edge>
    <edge id=":257058400_1" function="internal">
        <lane id=":257058400_1_0" index="0" allow="private emergency authority army vip passenger hov taxi bus coach delivery truck trailer motorcycle evehicle custom1 custom2" speed="34.00" length="2.97" shape="2387.32,1854.73 2385.71,1852.13"/>
        <lane id=":257058400_1_1" index="1" allow="private emergency authority army vip passenger hov taxi bus coach delivery truck trailer motorcycle evehicle custom1 custom2" speed="34.00" length="2.97" shape="2384.58,1856.39 2383.02,1853.87"/>
        <lane id=":257058400_1_2" index="2" allow="private emergency authority army vip passenger hov taxi bus coach delivery truck trailer motorcycle evehicle custom1 custom2" speed="34.00" length="2.97" shape="2381.84,1858.05 2380.34,1855.61"/>
    </edge>
    <edge id=":257058413_0" function="internal">
        <lane id=":257058413_0_0" index="0" allow="private emergency authority army vip passenger hov taxi bus coach delivery truck trailer motorcycle evehicle custom1 custom2" speed="27.11" length="3.38" shape="580.10,589.65 576.77,589.06"/>
    </edge>
    <edge id=":257058413_1" function="internal">
        <lane id=":257058413_1_0" index="0" allow="private emergency authority army vip passenger hov taxi bus coach delivery truck trailer motorcycle evehicle custom1 custom2" speed="34.00" length="2.98" shape="579.44,592.78 576.32,592.18"/>
        <lane id=":257058413_1_1" index="1" allow="private emergency authority army vip passenger hov taxi bus coach delivery truck trailer motorcycle evehicle custom1 custom2" speed="34.00" length="2.98" shape="578.78,595.91 575.86,595.35"/>
        <lane id=":257058413_1_2" index="2" allow="private emergency authority army vip passenger hov taxi bus coach delivery truck trailer motorcycle evehicle custom1 custom2" speed="34.00" length="2.98" shape="578.12,599.04 575.39,598.52"/>
    </edge>
    <edge id=":31887776-AddedOffRampNode_0" function="internal">
        <lane id=":31887776-AddedOffRampNode_0_0" index="0" allow="private emergency authority army vip passenger hov taxi bus coach delivery truck trailer motorcycle evehicle custom1 custom2" speed="34.00" length="0.65" shape="9410.73,9304.57 9411.36,9304.74"/>
        <lane id=":31887776-AddedOffRampNode_0_1" index="1" allow="private emergency authority army vip passenger hov taxi bus coach delivery truck trailer motorcycle evehicle custom1 custom2" speed="34.00" length="0.65" shape="9413.08,9302.39 9413.70,9302.56"/>
    </edge>
    <edge id=":357094356_0" function="internal">
        <lane id=":357094356_0_0" index="0" allow="private emergency authority army vip passenger hov taxi bus coach delivery truck trailer motorcycle evehicle custom1 custom2" speed="34.00" length="0.30" shape="6680.89,6271.49 6680.72,6271.29"/>
        <lane id=":357094356_0_1" index="1" allow="private emergency authority army vip passenger hov taxi bus coach delivery truck trailer motorcycle evehicle custom1 custom2" speed="34.00" length="0.30" shape="6678.47,6273.58 6678.28,6273.36"/>
        <lane id=":357094356_0_2" index="2" allow="private emergency authority army vip passenger hov taxi bus coach delivery truck trailer motorcycle evehicle custom1 custom2" speed="34.00" length="0.30" shape="6676.04,6275.67 6675.84,6275.43"/>
        <lane id=":357094356_0_3" index="3" allow="private emergency authority army vip passenger hov taxi bus coach delivery truck trailer motorcycle evehicle custom1 custom2" speed="34.00" length="0.30" shape="6673.62,6277.76 6673.40,6277.50"/>
    </edge>
    <edge id=":357094369_0" function="internal">
        <lane id=":357094369_0_0" index="0" allow="private emergency authority army vip passenger hov taxi bus coach delivery truck trailer motorcycle evehicle custom1 custom2" speed="27.11" length="3.52" shape="4087.34,3438.91 4084.45,3436.90"/>
    </edge>
    <edge id=":357094369_1" function="internal">
        <lane id=":357094369_1_0" index="0" allow="private emergency authority army vip passenger hov taxi bus coach delivery truck trailer motorcycle evehicle custom1 custom2" speed="34.00" length="3.11" shape="4085.42,3441.47 4082.74,3439.51"/>
        <lane id=":357094369_1_1" index="1" allow="private emergency authority army vip passenger hov taxi bus coach delivery truck trailer motorcycle evehicle custom1 custom2" speed="34.00" length="3.11" shape="4083.49,3444.03 4080.99,3442.19"/>
        <lane id=":357094369_1_2" index="2" allow="private emergency authority army vip passenger hov taxi bus coach delivery truck trailer motorcycle evehicle custom1 custom2" speed="34.00" length="3.11" shape="4081.57,3446.59 4079.24,3444.87"/>
    </edge>
    <edge id=":407608708-AddedOffRampNode_0" function="internal">
        <lane id=":407608708-AddedOffRampNode_0_0" index="0" allow="private emergency authority army vip passenger hov taxi bus coach delivery truck trailer motorcycle evehicle custom1 custom2" speed="34.00" length="8.20" shape="2440.45,1942.33 2439.60,1939.97 2439.74,1938.08 2439.89,1936.19 2439.04,1933.83"/>
        <lane id=":407608708-AddedOffRampNode_0_1" index="1" allow="private emergency authority army vip passenger hov taxi bus coach delivery truck trailer motorcycle evehicle custom1 custom2" speed="34.00" length="8.20" shape="2440.45,1942.33 2436.30,1935.49"/>
        <lane id=":407608708-AddedOffRampNode_0_2" index="2" allow="private emergency authority army vip passenger hov taxi bus coach delivery truck trailer motorcycle evehicle custom1 custom2" speed="34.00" length="8.20" shape="2437.71,1943.99 2433.57,1937.15"/>
        <lane id=":407608708-AddedOffRampNode_0_3" index="3" allow="private emergency authority army vip passenger hov taxi bus coach delivery truck trailer motorcycle evehicle custom1 custom2" speed="34.00" length="8.20" shape="2434.98,1945.65 2430.83,1938.81"/>
    </edge>
    <edge id=":407608708-AddedOnRampNode_0" function="internal">
        <lane id=":407608708-AddedOnRampNode_0_0" index="0" allow="private emergency authority army vip passenger hov taxi bus coach delivery truck trailer motorcycle evehicle custom1 custom2" speed="34.00" length="8.00" shape="3437.92,3024.55 3431.21,3020.18"/>
        <lane id=":407608708-AddedOnRampNode_0_1" index="1" allow="private emergency authority army vip passenger hov taxi bus coach delivery truck trailer motorcycle evehicle custom1 custom2" speed="34.00" length="8.00" shape="3436.17,3027.23 3429.47,3022.87"/>
        <lane id=":407608708-AddedOnRampNode_0_2" index="2" allow="private emergency authority army vip passenger hov taxi bus coach delivery truck trailer motorcycle evehicle custom1 custom2" speed="34.00" length="8.00" shape="3434.42,3029.92 3427.72,3025.55"/>
    </edge>
    <edge id=":4623375203_0" function="internal">
        <lane id=":4623375203_0_0" index="0" allow="private emergency authority army vip passenger hov taxi bus coach delivery truck trailer motorcycle evehicle custom1 custom2" speed="27.11" length="3.05" shape="1887.04,1246.58 1884.77,1244.55"/>
    </edge>
    <edge id=":4623375203_1" function="internal">
        <lane id=":4623375203_1_0" index="0" allow="private emergency authority army vip passenger hov taxi bus coach delivery truck trailer motorcycle evehicle custom1 custom2" speed="34.00" length="2.98" shape="1884.85,1248.95 1882.63,1246.92"/>
        <lane id=":4623375203_1_1" index="1" allow="private emergency authority army vip passenger hov taxi bus coach delivery truck trailer motorcycle evehicle custom1 custom2" speed="34.00" length="2.98" shape="1882.69,1251.31 1880.48,1249.30"/>
        <lane id=":4623375203_1_2" index="2" allow="private emergency authority army vip passenger hov taxi bus coach delivery truck trailer motorcycle evehicle custom1 custom2" speed="34.00" length="2.98" shape="1880.52,1253.67 1878.34,1251.68"/>
    </edge>
    <edge id=":4623379250_0" function="internal">
        <lane id=":4623379250_0_0" index="0" allow="private emergency authority army vip passenger hov taxi bus coach delivery truck trailer motorcycle evehicle custom1 custom2" speed="34.00" length="8.09" shape="713.26,647.13 721.10,648.81"/>
        <lane id=":4623379250_0_1" index="1" allow="private emergency authority army vip passenger hov taxi bus coach delivery truck trailer motorcycle evehicle custom1 custom2" speed="34.00" length="8.09" shape="714.05,644.03 722.04,645.75"/>
    </edge>
    <edge id=":4623379250_2" function="internal">
        <lane id=":4623379250_2_0" index="0" allow="private emergency authority army vip passenger hov taxi bus coach delivery truck trailer motorcycle evehicle custom1 custom2" speed="27.11" length="9.94" shape="712.08,651.74 714.78,651.61 716.61,650.22 718.42,648.86 721.10,648.81"/>
    </edge>
    <edge id=":51335836-AddedOnRampNode_0" function="internal">
        <lane id=":51335836-AddedOnRampNode_0_0" index="0" allow="private emergency authority army vip passenger hov taxi bus coach delivery truck trailer motorcycle evehicle custom1 custom2" speed="22.22" length="8.00" shape="561.59,618.87 569.45,620.36"/>
    </edge>
    <edge id=":655124570_0" function="internal">
        <lane id=":655124570_0_0" index="0" allow="private emergency authority army vip passenger hov taxi bus coach delivery truck trailer motorcycle evehicle custom1 custom2" speed="22.22" length="3.09" shape="465.04,604.82 468.11,605.19"/>
    </edge>
    <edge id=":655124570_1" function="internal">
        <lane id=":655124570_1_0" index="0" allow="private emergency authority army vip passenger hov taxi bus coach delivery truck trailer motorcycle evehicle custom1 custom2" speed="22.22" length="3.04" shape="464.68,607.97 467.70,608.36"/>
    </edge>
    <edge id=":655124576_0" function="internal">
        <lane id=":655124576_0_0" index="0" allow="private emergency authority army vip passenger hov taxi bus coach delivery truck trailer motorcycle evehicle custom1 custom2" speed="18.05" length="0.23" shape="465.94,568.60 465.72,568.55"/>
    </edge>
    <edge id=":6565417706_0" function="internal">
        <lane id=":6565417706_0_0" index="0" allow="private emergency authority army vip passenger hov taxi bus coach delivery truck trailer motorcycle evehicle custom1 custom2" speed="22.22" length="2.69" shape="3869.09,3170.32 3869.82,3169.99 3870.29,3169.72 3870.73,3169.38 3871.37,3168.90"/>
    </edge>
    <edge id=":6565417706_1" function="internal">
        <lane id=":6565417706_1_0" index="0" allow="private emergency authority army vip passenger hov taxi bus coach delivery truck trailer motorcycle evehicle custom1 custom2" speed="22.22" length="1.96" shape="3867.87,3167.37 3868.40,3167.14 3868.76,3166.97 3869.11,3166.78 3869.61,3166.50"/>
    </edge>
    <edge id=":6565417729_0" function="internal">
        <lane id=":6565417729_0_0" index="0" allow="private emergency authority army vip passenger hov taxi bus coach delivery truck trailer motorcycle evehicle custom1 custom2" speed="10.31" length="5.61" shape="4020.39,3107.06 4018.83,3106.64 4017.69,3106.65 4016.55,3106.94 4014.93,3107.37"/>
    </edge>
    <edge id=":6565417729_1" function="internal">
        <lane id=":6565417729_1_0" index="0" allow="private emergency authority army vip passenger hov taxi bus coach delivery truck trailer motorcycle evehicle custom1 custom2" speed="16.66" length="3.97" shape="4019.33,3110.08 4018.21,3109.71 4017.43,3109.51 4016.63,3109.42 4015.45,3109.32"/>
    </edge>
    <edge id=":6565417752_0" function="internal">
        <lane id=":6565417752_0_0" index="0" allow="private emergency authority army vip passenger hov taxi bus coach delivery truck trailer motorcycle evehicle custom1 custom2" speed="10.00" length="5.74" shape="3900.31,3378.45 3898.79,3377.80 3897.64,3377.66 3896.44,3377.82 3894.74,3378.06"/>
    </edge>
    <edge id=":6565417752_1" function="internal">
        <lane id=":6565417752_1_0" index="0" allow="private emergency authority army vip passenger hov taxi bus coach delivery truck trailer motorcycle evehicle custom1 custom2" speed="22.22" length="4.05" shape="3898.79,3381.27 3897.72,3380.72 3896.96,3380.40 3896.17,3380.18 3895.00,3379.89"/>
    </edge>