<?xml version="1.0" encoding="UTF-8"?>

<additional xmlns:xsi="http://www.w3.org/2001/XMLSchema-instance" xsi:noNamespaceSchemaLocation="http://sumo.dlr.de/xsd/additional_file.xsd">
    <!-- Induction Loop Detectors (E1) -->
    <!-- <e1Detector id="e1_0" lane="285190605_0" pos="1755.61" freq="300.00" file="NUL"/>
    <e1Detector id="e1_1" lane="285190605_1" pos="1755.17" freq="300.00" file="NUL"/> -->

    <!-- Lane Area Detectors (E2) -->
    <!-- 減速制御を行う車両を検知 -->
    <e2Detector id="e2_0" lane="285190605_0" pos="1160.00" length="1000.00" freq="300.00" file="NUL"/>
    <e2Detector id="e2_1" lane="285190605_1" pos="1160.00" length="1000.00" freq="300.00" file="NUL"/>

    <e2Detector id="e2_2" lane="285190605_0" pos="660.00" length="1000.00" freq="300.00" file="NUL"/>
    <e2Detector id="e2_3" lane="285190605_1" pos="660.00" length="1000.00" freq="300.00" file="NUL"/>

    <e2Detector id="e2_4" lane="285190605_0" pos="160.00" length="1000.00" freq="300.00" file="NUL"/>
    <e2Detector id="e2_5" lane="285190605_1" pos="160.00" length="1000.00" freq="300.00" file="NUL"/>

    <!-- Lane Area Detectors (E2) -->
    <!-- 大和トンネルにいる車両を検知 -->
    <e2Detector id="y_0" lane="31887784_0" pos="0.0" length="280.00" freq="300.00" file="NUL"/>
    <e2Detector id="y_1" lane="31887784_1" pos="0.0" length="280.00" freq="300.00" file="NUL"/>

    <!-- 速度観測 -->
    <e2Detector id="x_a0" lane="285190605_0" pos="2704.87" length="500.00" freq="300.00" file="NUL"/>
    <e2Detector id="x_a1" lane="285190605_1" pos="2704.87" length="500.00" freq="300.00" file="NUL"/>

    <!-- <e2Detector id="x_b0" lane="285190605_0" pos="2804.87" length="200.00" freq="300.00" file="NUL"/>
    <e2Detector id="x_b1" lane="285190605_1" pos="2804.87" length="200.00" freq="300.00" file="NUL"/>

    <e2Detector id="x_c0" lane="285190605_0" pos="2604.87" length="200.00" freq="300.00" file="NUL"/>
    <e2Detector id="x_c1" lane="285190605_1" pos="2604.87" length="200.00" freq="300.00" file="NUL"/> -->
</additional>